35
Energy =
O     0.8419282   -0.7807645   -0.4898662 
C    -0.1196869    0.1891219   -0.0023609 
C     0.7335763    1.4077355    0.2891020 
C     2.0287159    1.1154634    0.1562578 
C     2.1890544   -0.3245908   -0.2617442 
C    -1.1651206    0.4291008   -1.1339136 
C     3.0209413   -0.5340726   -1.5228207 
C    -0.4883930    1.1083899   -2.3361551 
C    -2.3075915    1.3320639   -0.6367402 
C    -1.7549743   -0.9079331   -1.6173250 
C    -0.7660098   -0.3275512    1.3022643 
C     0.2350546   -0.9001187    2.3110271 
C    -0.4557140   -1.3078016    3.6173342 
H     0.3161359    2.3626980    0.6011326 
H     2.8712346    1.7815374    0.3317533 
H     2.6314295   -0.9146575    0.5637643 
H     2.6430012    0.0896111   -2.3427721 
H     4.0710629   -0.2686327   -1.3325802 
H     2.9793577   -1.5871598   -1.8303147 
H    -0.1163141    2.1110922   -2.0837308 
H     0.3552977    0.5080649   -2.6989759 
H    -1.2113346    1.2139525   -3.1583465 
H    -1.9308913    2.2816009   -0.2281123 
H    -2.9759197    1.5750887   -1.4757407 
H    -2.9122595    0.8404699    0.1371016 
H    -0.9628007   -1.5753000   -1.9784717 
H    -2.3119332   -1.4285703   -0.8271574 
H    -2.4558139   -0.7205095   -2.4444171 
H    -1.5080713   -1.1041944    1.0665394 
H    -1.3146964    0.5054675    1.7717950 
H     0.7314480   -1.7738224    1.8660072 
H     1.0179282   -0.1568671    2.5257538 
H    -1.2355712   -2.0606222    3.4316059 
H     0.2607927   -1.7361174    4.3316706 
H    -0.9338629   -0.4421727    4.0984362 
