31
Energy =
C    -0.4120698    0.2186672   -0.5479450 
C     2.0236796    0.2241665   -0.6154867 
C     2.0780064    1.7486384   -0.6101154 
C     0.8197054    2.3136377   -1.2722874 
C    -0.4076237    1.7517285   -0.5530280 
C    -1.6495760   -0.3444190    0.1819885 
C    -1.6198586   -1.8803111    0.1641946 
C    -0.3020743   -2.4240199    0.7231103 
C     0.8721685   -1.7720000   -0.0017377 
H    -1.3390836    2.1033397   -1.0235030 
H    -0.4034599    2.1187131    0.4843225 
H     0.7993893    2.0207188   -2.3354052 
H     0.8165616    3.4127494   -1.2375418 
H     2.9865258    2.0785832   -1.1353604 
H     2.1454481    2.1075092    0.4288372 
H     2.0341652   -0.1364501   -1.6673620 
H     2.9083728   -0.1963588   -0.1163474 
H     1.8261847   -2.1020522    0.4339898 
H     0.8677810   -2.0869966   -1.0682912 
H    -0.2456830   -3.5136352    0.5795331 
H    -0.2324787   -2.2243328    1.7997748 
H    -1.7310792   -2.2209449   -0.8797872 
H    -2.4775834   -2.2804034    0.7255156 
H    -2.5313209   -0.0146814   -0.3960408 
H    -0.4517451   -0.1317375   -1.6065004 
N     0.8312441   -0.2972929    0.0787100 
C    -1.8314458    0.2419045    1.5947732 
H    -2.1583803    1.2930974    1.5118272 
H    -2.6404542   -0.3054793    2.1038179 
O    -0.6747299    0.1611845    2.4307465 
H     0.0994140    0.1364773    1.8255986 
