20
Energy =
C    -1.5624914   -0.6237005    1.3028048 
C    -0.7221069    0.4218174    1.3440200 
C    -0.2642034    0.7496275   -0.0455822 
O    -0.9686050   -0.1993452   -0.8890822 
C    -1.7133219   -1.0420024   -0.0899922 
O    -2.1829089   -1.2588582    2.3356380 
O    -2.3686865   -1.9614506   -0.5216781 
C     1.2512581    0.5887426   -0.2320050 
C     1.6685933    0.7374903   -1.7027633 
O     1.4197163   -0.4634611   -2.4379804 
O    -0.2384187    1.1505951    2.3741525 
H    -2.6851342   -1.9963303    1.9382303 
H     0.4527979   -0.5818928   -2.4661637 
O     1.6940841   -0.6578406    0.2793930 
H    -0.5586596    0.7501025    3.2042255 
H     1.7082434   -1.2577505   -0.4916610 
H    -0.5766853    1.7613002   -0.3493593 
H     1.7288165    1.3836415    0.3630000 
H     1.1651053    1.6044058   -2.1614963 
H     2.7526069    0.8949094   -1.7537001 
