153
Energy = -462.9401541641
O    -4.3633800    0.0503400   -3.0815600 
O    -2.7054800    3.4074800   -3.0885900 
O     1.1151100    4.2718400   -3.0544700 
O     4.0972800    2.0085200   -3.1062000 
O     3.6807200   -1.7381500   -2.9877300 
O     0.8783400   -4.3013900   -3.1583700 
O    -2.7735300   -3.3863600   -3.1011800 
O    -4.3736700    0.0149600    3.1457900 
O    -2.7154800    3.4555700    3.1782400 
O     0.9199200    4.1800600    3.1967900 
O     3.9158600    1.7104100    3.1529300 
O     4.0480100   -1.9960300    3.1723500 
O     0.9527700   -4.1989700    3.1064100 
O    -2.7554200   -3.3281300    3.1237600 
N    -5.1583200   -1.0657400   -1.1985400 
N    -5.1471500    1.1720500   -1.1969400 
N    -4.0759100    3.3638500   -1.2069100 
N    -2.2493300    4.6553500   -1.1743500 
N     0.1287400    5.1555900   -1.1361900 
N     2.3365600    4.7798600   -1.1378200 
N     4.2562700    3.2711500   -1.1543500 
N     5.1496300    1.2218700   -1.1835400 
N     5.0663300   -1.2137700   -1.1946200 
N     4.0305700   -3.1982200   -1.2095100 
N     2.1505900   -4.7502700   -1.2610000 
N    -0.0288500   -5.2449200   -1.2312800 
N    -2.4041100   -4.7039100   -1.2174800 
N    -4.1210800   -3.2704900   -1.2045800 
N    -5.1969200   -1.0809000    1.2633900 
N    -5.1352500    1.1540600    1.2631100 
N    -4.0241400    3.3192800    1.2556900 
N    -2.3021700    4.7474500    1.2857500 
N     0.0807300    5.2806500    1.3243700 
N     2.2202300    4.6290900    1.3158100 
N     4.1167000    3.1107100    1.3020900 
N     5.1681700    1.1361200    1.2768900 
N     5.1805100   -1.3010800    1.2593600 
N     4.1682400   -3.2933900    1.2423600 
N     2.1878600   -4.7137400    1.1992700 
N     0.0026700   -5.2020900    1.2317800 
N    -2.3700400   -4.6445300    1.2414300 
N    -4.1465100   -3.2847300    1.2568600 
C    -5.8540300   -0.7284300    0.0245800 
C    -5.8293700    0.8380000    0.0336800 
C    -3.0553600   -3.7323600   -1.9723000 
C    -1.3411900   -5.5036400   -1.7825500 
C    -4.1989700    4.0853300    0.0381500 
C    -2.9562300    5.0375400    0.0306800 
C     0.9823400   -4.7010900   -2.0170700 
C     3.4183500   -4.3590000   -1.8271200 
C     0.5861800    5.8042400    0.0774500 
C     2.1082700    5.4447500    0.1225600 
C     4.1895800   -2.0121300   -1.9150200 
C     5.6297000   -0.0063600   -1.7675100 
C     4.9432400    3.1843500    0.1135800 
C     5.6266700    1.7760100    0.0650300 
C     4.4410900    2.1452500   -1.9515000 
C     5.5793500   -1.8678600   -0.0091100 
C     4.8623100   -3.2606600   -0.0245700 
C    -5.1195600   -2.3917100   -1.7737300 
C    -4.8180000    0.0524400   -1.9561900 
C     1.9909300   -5.4710600   -0.0179000 
C     0.4630100   -5.8138800    0.0045400 
C    -5.0933900    2.5024400   -1.7651900 
C    -2.9685200    3.7537700   -1.9558500 
C    -3.0756800   -4.9980600    0.0277600 
C    -4.2987000   -4.0194400    0.0216400 
C    -1.1592400    5.4167400   -1.7422900 
C     1.1830800    4.6707600   -1.9112600 
C    -5.1541600   -2.4139000    1.8214900 
C    -4.8301900    0.0275700    2.0202900 
C     3.6416700    4.4708200   -1.6805400 
C    -3.0463400   -3.6943000    2.0033300 
C    -1.3008600   -5.4307700    1.8162400 
C    -5.0512000    2.4796600    1.8328500 
C    -2.9716900    3.7883400    2.0389500 
C     1.0335200   -4.6367000    1.9772100 
C     3.4879600   -4.4500100    1.7791000 
C    -1.2371800    5.5419800    1.8580000 
C     1.0523800    4.6268100    2.0756500 
C     4.4069100   -2.1678300    2.0255200 
C     5.7216900   -0.0830300    1.8217400 
C     3.4829000    4.2577900    1.9132500 
C     4.3353600    1.9505900    2.0387400 
H    -6.8708800   -1.1502400    0.0060100 
H     5.4722400   -0.0976800    2.8865800 
H     3.2737100    3.9889800    2.9526900 
H     4.1723400    5.1159800    1.8672200 
H     6.8123200   -0.0729800    1.6785800 
H     4.1243900   -5.3377200    1.6436300 
H    -1.4713800    6.6070000    1.7158200 
H    -1.1998300    5.2934400    2.9222100 
H     3.3279400   -4.2495900    2.8423700 
H    -1.5512200   -6.4986900    1.7236600 
H    -6.0270500    2.9781000    1.7252200 
H    -4.7976200    2.3540600    2.8893600 
H    -1.2281400   -5.1422800    2.8687000 
H     3.5051100    4.3049100   -2.7529700 
H    -4.9122700   -2.3004300    2.8819600 
H    -6.1402500   -2.8852500    1.6965300 
H     4.3112200    5.3248100   -1.5017200 
H    -5.2717100   -4.5345700    0.0090900 
H    -1.3875300    6.4914700   -1.6588600 
H    -3.3648600   -6.0601200    0.0571400 
H    -1.0797600    5.1222100   -2.7927800 
H     0.2583000   -6.8957300    0.0256100 
H    -6.0757100    2.9820300   -1.6418500 
H     2.6386400   -6.3619200   -0.0116700 
H    -4.8531300    2.3816700   -2.8253200 
H     5.5565700   -4.1112500   -0.1007700 
H    -6.1109000   -2.8578900   -1.6664100 
H     6.6761500   -1.9371100   -0.0660300 
H    -4.8634700   -2.2693000   -2.8301100 
H     6.7269100    1.8241100    0.0615400 
H     5.3357600    0.0182100   -2.8207200 
H     5.6606400    4.0144100    0.2088700 
H     6.7249800   -0.0583800   -1.6730200 
H     2.7636600    6.3258200    0.2071900 
H     4.1251400   -5.2000400   -1.7610300 
H     0.3934900    6.8870200    0.0204100 
H     3.2225600   -4.1024700   -2.8721200 
H    -3.2236600    6.1050000   -0.0140600 
H    -1.2884100   -5.2529000   -2.8458200 
H    -5.1606300    4.6212100    0.0683500 
H    -1.5847700   -6.5680700   -1.6465800 
H    -6.8326500    1.2914000    0.0414600 
C    -0.7333400    0.7768700   -1.4963000 
C     1.5318900    0.6844500   -0.4300500 
C     0.3312400   -1.4340700   -1.0133300 
C    -0.4455200    1.4456100    0.9091700 
C    -1.6479300   -0.6814300    0.3375900 
C     0.6231200   -0.7786100    1.3972600 
C     0.5955000    0.0146700   -1.4526900 
C    -1.3859900    0.7695400   -0.1028100 
C     0.8856200    0.6758700    0.9680500 
C    -0.3171200   -1.4514200    0.3828500 
O     1.1321000    0.0759500   -2.7792800 
H     1.9222000   -0.4920100   -2.8336900 
H    -2.3369900    1.3146400   -0.1424200 
H     1.5513300    1.1540800    1.6954400 
H    -0.5061400   -2.4878800    0.6862000 
H    -0.5396400    1.8014600   -1.8343700 
H    -1.3872900    0.3083300   -2.2405500 
H    -0.3114600   -1.9161100   -1.7592800 
H     1.7342900    1.7110300   -0.7580600 
H    -0.9050600    1.4765500    1.9041700 
H    -2.1140700   -0.6961900    1.3305100 
H     0.1792500   -0.8054800    2.3990900 
H    -2.3386900   -1.1649600   -0.3640600 
H    -0.2612100    2.4825200    0.5983000 
H     2.4906200    0.1466600   -0.4064800 
H     1.2838500   -1.9817100   -0.9881400 
H     1.5715500   -1.3279600    1.4530400 
