114
Energy =
C     3.0820288   -0.3275844   -2.1694844 
C     3.8200963   -1.1585390   -2.9952784 
C     3.1714150   -2.4257770   -3.0337879 
C     2.0480212   -2.3534208   -2.2284261 
C     3.3363615    1.1187380   -1.7776567 
C     4.6840584    1.5482224   -2.4110542 
C     2.2460309    2.0496766   -2.2932357 
C     2.2852100    2.9687545   -3.3232806 
C     1.0264166   -3.4137534   -1.8630966 
C     0.9841744   -3.5777506   -0.3234773 
C     1.4580325   -4.7567943   -2.4788627 
C    -0.3531453   -3.0569487   -2.3789849 
C    -1.0766467   -3.5422019   -3.4574321 
N     2.0053482   -1.0715082   -1.7099792 
N     0.9832145    2.1356878   -1.7134568 
N    -1.1584042   -2.1366801   -1.7407362 
C    -2.1990714    2.3104510   -2.4086422 
C    -3.3025324    2.3463413   -3.2443354 
C    -3.9637854    1.0880246   -3.1511091 
C    -3.2530362    0.3017174   -2.2608416 
C    -1.2231749    3.4062405   -2.0244010 
C    -1.3452324    3.6535769   -0.5002726 
C    -1.6249816    4.7074275   -2.7432032 
C     0.2100075    3.0710479   -2.3996748 
C     1.0124543    3.6070851   -3.3896321 
C    -3.4773271   -1.1364215   -1.8326842 
C    -4.8366200   -1.6090034   -2.4046850 
C    -2.3765184   -2.0320210   -2.3754484 
C    -2.3490993   -2.8983110   -3.4552077 
N    -2.1812682    1.0590626   -1.8193605 
C     3.4747511    1.2756229   -0.2684504 
C     3.7301845    2.4269284    0.4998728 
N     3.4343572    0.2187513    0.5866383 
C     3.8407721    2.0199572    1.8607268 
C     3.6447310    0.6344398    1.8898348 
C    -3.5318933   -1.2816386   -0.3167226 
C    -3.6321904   -2.4434958    0.4642364 
N    -3.5702014   -0.2120724    0.5285051 
C    -3.7510280   -2.0402721    1.8195218 
C    -3.6981465   -0.6389889    1.8407594 
C     3.6056372   -0.2817793    3.0100035 
C    -3.6454970    0.2700413    2.9611320 
O     3.7726538    0.0262494    4.1871215 
O    -3.7548650   -0.0543620    4.1431714 
O     3.3541678   -1.5609561    2.6081649 
O    -3.4267983    1.5570636    2.5602184 
C    -3.2515897    2.5416161    3.6249176 
C     3.3134665   -2.5554497    3.6810725 
C    -2.4246339    3.6808889    3.0660039 
C     2.9391307   -3.8838641    3.0592075 
C    -3.8660582   -2.9675484    2.9957417 
C     4.0582106    2.9251196    3.0389578 
C     2.7422268    3.5504472    3.5440689 
C    -2.5011570   -3.3660997    3.5898870 
C    -3.6297454   -3.8643468   -0.0218106 
C     3.9297749    3.8304918   -0.0120007 
H     4.7311209   -0.8928435   -3.5120469 
H     3.5007876   -3.2964150   -3.5836516 
H     4.9043556    2.5866647   -2.1607974 
H     4.6408064    1.4524162   -3.4986970 
H     5.4863263    0.9128842   -2.0296997 
H     3.1418895    3.1869140   -3.9454112 
H     0.2531366   -4.3440310   -0.0458944 
H     0.7061995   -2.6449227    0.1752738 
H     1.9716694   -3.8750130    0.0406585 
H     1.5109166   -4.6994177   -3.5698461 
H     0.7378095   -5.5335422   -2.2065954 
H     2.4439740   -5.0409652   -2.0992033 
H    -0.7412525   -4.2962979   -4.1562055 
H     0.5980767    1.4216837   -1.0692396 
H    -0.8816269   -1.5701980   -0.9358944 
H    -3.6170675    3.1909157   -3.8411190 
H    -4.8601401    0.7958371   -3.6798410 
H    -0.6985338    4.4904185   -0.2027872 
H    -1.1001242    2.7577517    0.0812051 
H    -2.3738459    3.9281849   -0.2516230 
H    -1.5942600    4.5919313   -3.8300306 
H    -0.9406772    5.5117479   -2.4584486 
H    -2.6402447    4.9911899   -2.4527137 
H     0.7295245    4.3915107   -4.0776009 
H    -4.8349084   -1.5498596   -3.4965071 
H    -5.6391164   -0.9765720   -2.0172379 
H    -5.0233097   -2.6431477   -2.1095427 
H    -3.1601395   -3.0752319   -4.1477937 
H    -1.4591719    0.7215595   -1.1749911 
H     3.2843120   -0.7432440    0.3064728 
H    -3.5201888    0.7576047    0.2426874 
H    -2.7571018    2.0508559    4.4655310 
H    -4.2456997    2.8699997    3.9446079 
H     2.5814473   -2.2257299    4.4232335 
H     4.2998371   -2.5838971    4.1525951 
H    -1.4457188    3.3112253    2.7482923 
H    -2.2800611    4.4370369    3.8448313 
H    -2.9223429    4.1527249    2.2142867 
H     1.9433425   -3.8424026    2.6086524 
H     2.9321994   -4.6516045    3.8395608 
H     3.6619573   -4.1765828    2.2918750 
H    -4.3952056   -3.8733724    2.6769016 
H    -4.4670485   -2.4939002    3.7767088 
H     4.7561009    3.7236842    2.7631628 
H     4.5115583    2.3539098    3.8516402 
H     2.3284235    4.2532507    2.8069502 
H     2.9102510    4.1264598    4.4593850 
H     1.9988894    2.7734590    3.7504154 
H    -1.8575145   -3.8204212    2.8286723 
H    -2.6329911   -4.0898176    4.4015637 
H    -1.9867026   -2.4882691    3.9908799 
H    -3.2078782   -3.9349504   -1.0274337 
H    -4.6443011   -4.2830603   -0.0509144 
H    -3.0339441   -4.5010238    0.6404330 
H     3.3538526    4.0148198   -0.9254263 
H     4.9827230    4.0241745   -0.2495990 
H     3.6413908    4.5754567    0.7388120 
H     1.2604565   -0.7144854   -1.1021015 
