20
Energy =
C     1.1876094   -0.3618555    1.2637788 
C    -0.2534561    0.1623918    1.2667432 
C    -1.0056239   -0.2892321   -0.0000008 
C    -0.2534548    0.1623937   -1.2667434 
C     1.1876080   -0.3618605   -1.2637784 
C     1.9362009    0.0814659   -0.0000011 
C    -2.3885306    0.2199881   -0.0000009 
C    -3.5177191    0.6642735    0.0000004 
H     1.1735451   -1.4641526    1.3105618 
H     1.7145136   -0.0121833    2.1639610 
H    -0.7935624   -0.1832385    2.1599601 
H    -0.2499414    1.2644787    1.2970113 
H    -1.0511888   -1.3925122   -0.0000018 
H    -0.7935621   -0.1832313   -2.1599617 
H    -0.2499350    1.2644807   -1.2970074 
H     1.7145133   -0.0121955   -2.1639630 
H     1.1735388   -1.4641577   -1.3105548 
H     2.0272513    1.1808832   -0.0000034 
H     2.9589604   -0.3240271   -0.0000008 
H    -4.5154651    1.0479658    0.0000009 
