60
Energy =
C     0.0927735    1.4974143    1.7571325 
C     0.0296683    1.4450978    0.2235281 
C    -1.2233974    0.6986224   -0.2605266 
C    -1.1970288   -0.7264503    0.3174619 
C    -1.1716887   -0.6690385    1.8502404 
C     0.0863114    0.0703993    2.3142930 
C    -1.2700453    0.6394273   -1.7926659 
C    -0.0211391   -0.0752294   -2.3161334 
C     0.0363194   -1.5021102   -1.7613775 
C     0.0446734   -1.4505350   -0.2261916 
C     1.2959165   -0.7014000    0.2648321 
C     1.2695977    0.7178594   -0.3253398 
C     1.2312936    0.6810290   -1.8613331 
C     1.3287804   -0.6648463    1.8011536 
N    -0.0760096   -0.1231942   -3.8914923 
C     0.9344812   -1.0914525   -4.4532524 
N     0.1045699    0.1208586    3.8904204 
C     1.1248610    1.1061181    4.4031051 
C    -1.2360359    0.5339182    4.4479350 
C     0.4419219   -1.2240480    4.4839315 
C    -1.4346399   -0.5565988   -4.3863766 
C     0.2117680    1.2279786   -4.4971424 
H     0.0597298   -2.4789263    0.1546812 
H     2.1912341   -1.2270584   -0.0869908 
H     2.1707303    1.2597343   -0.0152894 
H     0.0087746    2.4733920   -0.1576185 
H    -2.1222451    1.2178825    0.0952495 
H    -2.1025539   -1.2611703    0.0041897 
H    -0.7477726    2.0762454    2.1505462 
H     1.0145459    2.0057295    2.0489892 
H     2.2385660   -0.1607700    2.1404443 
H     1.3518545   -1.6906607    2.1758743 
H    -1.1925061   -1.6813082    2.2621469 
H    -2.0688564   -0.1518947    2.1960328 
H    -2.1714002    0.1023907   -2.0945534 
H    -1.3328073    1.6501339   -2.2043753 
H     1.2205346    1.7068117   -2.2365422 
H     2.1320692    0.1914004   -2.2428463 
H    -0.8124061   -2.0947352   -2.1149477 
H     0.9517354   -1.9949805   -2.0967908 
H    -1.0890657    0.6792095    5.5212325 
H    -1.5588096    1.4558603    3.9653759 
H    -1.9575323   -0.2601577    4.2683273 
H     0.8071230    2.1147092    4.1443388 
H     1.1550022    0.9803959    5.4884307 
H     2.0915250    0.8904643    3.9521516 
H     0.3053672   -1.1266255    5.5639888 
H    -0.2249975   -1.9776026    4.0687831 
H     1.4772906   -1.4649867    4.2507929 
H     0.6449382   -2.1051659   -4.1814620 
H     0.9118614   -0.9643324   -5.5385729 
H     1.9176766   -0.8609836   -4.0476402 
H     0.0246158    1.1304237   -5.5695664 
H    -0.4459683    1.9704540   -4.0483223 
H     1.2533676    1.4843782   -4.3138260 
H    -1.3359142   -0.6986739   -5.4655783 
H    -1.7204174   -1.4837104   -3.8904909 
H    -2.1592348    0.2258510   -4.1716361 
Cl    0.1479645    0.2459786    7.8634050 
Cl   -0.2188655   -0.2410286   -7.8616264 
