116
Energy =
C     2.8535273    3.1016997   -1.6174567 
C     2.0085944    3.9192423   -2.3876765 
C     0.8614233    4.4522867   -1.7712351 
C     0.5718525    4.1729856   -0.4458510 
C     1.4085552    3.3413125    0.3214766 
C     2.5584218    2.8174785   -0.2938740 
C     1.0849946    3.0199470    1.7218370 
C    -0.2336985    3.1128724    2.1990026 
C    -0.5438590    2.7911728    3.5104345 
C     0.4507251    2.3571144    4.4036991 
C     1.7733132    2.2717777    3.9308258 
C     2.0826829    2.6004327    2.6213263 
C     0.1113610    1.9753746    5.7773859 
C    -1.0938001    2.3833756    6.3836243 
C    -1.4180498    1.9612177    7.6525450 
N    -0.5802803    1.1583210    8.3504792 
C     0.6062445    0.7712202    7.8208844 
C     0.9652533    1.1667047    6.5519991 
C    -1.0170974    0.5624004    9.6541072 
C    -1.6102952   -0.7990112    9.3756483 
C    -2.9438859   -0.9263132    8.9700265 
C    -3.4372692   -2.1657625    8.5693427 
C    -2.6013719   -3.2884601    8.5713544 
C    -1.2829403   -3.1704367    9.0231955 
C    -0.7892052   -1.9302970    9.4236816 
C    -3.0727543   -4.6000255    7.9880632 
N    -2.8520650   -4.5610806    6.5064452 
C    -1.6087414   -4.8081406    6.0255216 
C    -1.3282152   -4.6230490    4.6905918 
C    -2.3199293   -4.1718117    3.7984159 
C    -3.6057074   -3.9632680    4.3365438 
C    -3.8434136   -4.1546216    5.6784300 
C    -2.0235642   -3.9139590    2.3864540 
C    -2.8637988   -3.0958526    1.6115837 
C    -2.5637019   -2.8155280    0.2883026 
C    -1.4129092   -3.3433158   -0.3218742 
C    -0.5808608   -4.1754507    0.4498905 
C    -0.8758817   -4.4514901    1.7747655 
C    -1.0835770   -3.0247719   -1.7214879 
C     0.2374473   -3.1160465   -2.1922902 
C     0.5532132   -2.7950918   -3.5026269 
C    -0.4380249   -2.3642494   -4.4012129 
C    -1.7631358   -2.2819240   -3.9347657 
C    -2.0780314   -2.6090309   -2.6262375 
C     2.3000023    4.1811263   -3.7998346 
C     1.3028281    4.6251371   -4.6894507 
C     1.5791821    4.8137756   -6.0248157 
N     2.8236751    4.5777753   -6.5081660 
C     3.8201135    4.1791278   -5.6824178 
C     3.5865443    3.9840473   -4.3403721 
C     3.0414577    4.6188002   -7.9901255 
C     2.5849991    3.3012090   -8.5718342 
C     3.4325866    2.1873041   -8.5656683 
C     2.9527578    0.9417389   -8.9638125 
C     1.6213630    0.7995966   -9.3716984 
C     0.7887274    1.9222131   -9.4243697 
C     1.2686997    3.1683498   -9.0256944 
C     1.0429858   -0.5685066   -9.6482763 
N     0.6050984   -1.1643047   -8.3448976 
C     1.4456549   -1.9588704   -7.6408061 
C     1.1182825   -2.3811358   -6.3726680 
C    -0.0935213   -1.9822566   -5.7736171 
C    -0.9494417   -1.1815102   -6.5542440 
C    -0.5869881   -0.7854877   -7.8219114 
H     1.0362923   -3.3967009   -1.5157065 
H     1.5914449   -2.8364950   -3.8124416 
H    -2.5625773   -1.9848571   -4.6051987 
H    -3.1142344   -2.5593640   -2.3089807 
H     1.8161626   -3.0305951   -5.8597047 
H     2.3714044   -2.2341556   -8.1300914 
H    -1.2173193   -0.1768486   -8.4716491 
H    -1.8990091   -0.8317438   -6.1695473 
H     0.1508869   -0.5051246  -10.2770354 
H     1.7717322   -1.2540887  -10.0812315 
H     3.6137483    0.0789627   -8.9442073 
H     4.4643478    2.2870526   -8.2383059 
H     0.6227558    4.0450522   -9.0471748 
H    -0.2394947    1.8059175   -9.7642114 
H     4.1039971    4.8037582   -8.1493291 
H     2.4432792    5.4513788   -8.3698010 
H     0.8473329    5.1672382   -6.7524404 
H     0.2881779    4.8005329   -4.3550661 
H     4.4209432    3.6839936   -3.7193078 
H     4.7911403    4.0282879   -6.1368820 
H     0.2007653    5.1135490   -2.3219135 
H    -0.3064440    4.6233862    0.0041460 
H     3.2072229    2.1430733    0.2529422 
H     3.7269137    2.6419685   -2.0663019 
H    -1.0354587    3.3958159    1.5268567 
H    -1.5804447    2.8342544    3.8255381 
H     2.5750160    1.9715605    4.5971900 
H     3.1172954    2.5489075    2.2992311 
H    -1.7883504    3.0402091    5.8755564 
H    -2.3385338    2.2437052    8.1476187 
H     1.2345662    0.1561224    8.4667308 
H     1.9100352    0.8104371    6.1614461 
H    -0.1225505    0.4882593   10.2780647 
H    -1.7368359    1.2535487   10.0932481 
H    -3.5960425   -0.0567617    8.9539286 
H    -4.4705574   -2.2540177    8.2435039 
H    -0.6462618   -4.0539702    9.0418991 
H     0.2410565   -1.8253096    9.7610162 
H    -4.1377050   -4.7722120    8.1454236 
H    -2.4852836   -5.4399997    8.3682991 
H    -0.8815987   -5.1676258    6.7547863 
H    -0.3144115   -4.8074215    4.3585525 
H    -4.4364493   -3.6564756    3.7139222 
H    -4.8138169   -3.9942348    6.1309857 
H    -0.2187271   -5.1133490    2.3288446 
H     0.2979683   -4.6286294    0.0036581 
H    -3.2089991   -2.1410004   -0.2625350 
H    -3.7376205   -2.6328331    2.0561968 
Cl    2.4145560   -0.4428663   10.4729732 
Cl   -0.0451823   -6.6030322    8.4990354 
Cl   -0.0142419    6.5810416   -8.4998753 
Cl   -2.3897291    0.3903981  -10.4952059 
