116
Energy =
C    -1.0938500   -3.2751125   -2.8200052 
C     0.0968451   -3.5109554   -3.5299303 
C     1.2630315   -3.7845487   -2.7917089 
C     1.2386485   -3.8122322   -1.4070058 
C     0.0509181   -3.5602262   -0.6959843 
C    -1.1154758   -3.2979779   -1.4349529 
C     0.1277729   -3.4381056   -4.9933006 
C    -1.0500726   -3.5047837   -5.7647295 
C    -1.0007478   -3.3626326   -7.1322183 
N     0.1803294   -3.1720310   -7.7670299 
C     1.3422371   -3.1422889   -7.0691190 
C     1.3353108   -3.2749550   -5.6990472 
C     0.2046935   -2.8389743   -9.2274571 
C     0.1544559   -1.3358584   -9.3729822 
C    -1.0711784   -0.6606190   -9.3807000 
C    -1.1021661    0.7324090   -9.3736566 
C     0.0922247    1.4613739   -9.3590874 
C     1.3172522    0.7863203   -9.3964691 
C     1.3482861   -0.6066792   -9.4032729 
C     0.0755669    2.9636283   -9.1979794 
N     0.0420222    3.2792488   -7.7338130 
C     1.2068285    3.2932049   -7.0402428 
C     1.1993126    3.4084923   -5.6686163 
C    -0.0115754    3.5084521   -4.9567578 
C    -1.1942089    3.5319135   -5.7234149 
C    -1.1439344    3.4088256   -7.0927342 
C    -0.0400627    3.5607216   -3.4923980 
C     1.1162504    3.8740896   -2.7544313 
C     1.0963632    3.8814682   -1.3694057 
C    -0.0767059    3.5690529   -0.6580219 
C    -1.2338145    3.2674840   -1.3964529 
C    -1.2167391    3.2643470   -2.7817917 
C    -0.0879383    3.5470805    0.8142139 
C     1.0951484    3.3297312    1.5408502 
C     1.0895790    3.2978121    2.9256523 
C    -0.1051447    3.4694990    3.6464107 
C    -1.2908695    3.6917806    2.9222038 
C    -1.2806023    3.7328114    1.5372005 
C    -0.1137813    3.3896325    5.1103057 
C     1.0667083    3.5364322    5.8661619 
C     1.0430921    3.4040181    7.2358641 
N    -0.1152550    3.1441185    7.8867181 
C    -1.2802183    3.0266871    7.2027882 
C    -1.2987089    3.1459469    5.8312602 
C    -0.1064723    2.8354725    9.3532485 
C    -0.0599787    1.3345159    9.5184392 
C     1.1571187    0.6470196    9.4430516 
C     1.1736990   -0.7455875    9.4360247 
C    -0.0267196   -1.4626001    9.5039604 
C    -1.2383864   -0.7758619    9.6320176 
C    -1.2549502    0.6178050    9.6394344 
C    -0.0372835   -2.9624394    9.3228312 
N    -0.0326261   -3.2547673    7.8529023 
C    -1.1979136   -3.1613907    7.1658375 
C    -1.2079167   -3.2635905    5.7927902 
C    -0.0136846   -3.4638923    5.0739293 
C     1.1676790   -3.5875503    5.8324883 
C     1.1350638   -3.4739550    7.2036961 
C     0.0336281   -3.5597766    0.7764444 
C    -1.1537399   -3.8008904    1.4918004 
C    -1.1708429   -3.7794879    2.8772175 
C     0.0030550   -3.5232249    3.6092150 
C     1.1931466   -3.2964966    2.8961893 
C     1.2049256   -3.3080272    1.5111425 
H     0.8451229   -3.4445450    9.7441763 
H    -0.9511350   -3.4073485    9.7258604 
H     2.1218036   -1.2722961    9.3628339 
H     2.0923813    1.1969023    9.3751178 
H    -2.1949622    1.1619674    9.7192067 
H    -2.1652989   -1.3429795    9.7052311 
H    -1.0289131    3.2542482    9.7648126 
H     0.7662235    3.3335547    9.7761574 
H     1.9296376    3.5004819    7.8498430 
H     2.0144377    3.7651357    5.3957700 
H    -2.2486994    3.0201136    5.3272098 
H    -2.1698286    2.8570814    7.8100463 
H     2.0171433    3.0872492    3.4452353 
H     2.0257255    3.1420501    1.0167148 
H    -2.2077647    3.9339930    1.0108768 
H    -2.2277196    3.8599360    3.4428048 
H     1.9996076    4.1537913   -0.8335697 
H     2.0363265    4.1400379   -3.2637373 
H    -2.1193550    2.9812217   -3.3114366 
H    -2.1459966    2.9840341   -0.8838406 
H     2.1530296    3.3843835   -5.1569965 
H     2.1160113    3.2159996   -7.6393882 
H    -2.0303705    3.4075609   -7.7144473 
H    -2.1659798    3.6492036   -5.2611797 
H    -0.8073578    3.4229881   -9.6430707 
H     0.9875130    3.4183655   -9.5934134 
H    -2.0581900    1.2496103   -9.3704917 
H    -2.0033175   -1.2197554   -9.3828921 
H     2.2972785   -1.1408777   -9.4230293 
H     2.2416433    1.3622855   -9.4110761 
H     1.1373640   -3.2481156   -9.6241985 
H    -0.6551559   -3.3326742   -9.6809053 
H    -1.8841589   -3.3944072   -7.7573948 
H    -2.0170713   -3.6714897   -5.3076949 
H     2.2851738   -3.2146117   -5.1833134 
H     2.2492730   -3.0170334   -7.6634654 
H    -2.0059851   -3.0238757   -3.3494899 
H    -2.0408245   -3.0614595   -0.9221810 
H     2.1508978   -4.0533291   -0.8715241 
H     2.1954470   -4.0037406   -3.3008764 
H    -2.0706917   -4.0297273    0.9589809 
H    -2.1024426   -3.9900587    3.3918515 
H     2.1098854   -3.0582996    3.4230489 
H     2.1296830   -3.0774774    0.9938698 
H    -2.1590431   -3.1579773    5.2861297 
H    -2.0940486   -3.0233229    7.7716237 
H     2.0214290   -3.5543493    7.8202666 
H     2.1230650   -3.7836280    5.3627767 
Cl    3.8523922   -3.3164378   -9.4026763 
Cl    3.6949986    3.6124992   -9.3821658 
Cl   -3.6222291   -3.5897718    9.5566164 
Cl   -3.6934886    3.3875848    9.6101504 
