29
C -2.997000 2.282000 -1.321000
C -5.086000 2.109000 -0.090000
C -4.420000 2.181000 1.091000
C -2.988000 2.283000 1.033000
C 1.169000 2.375000 1.018000
C 1.174000 2.413000 -1.463000
C 3.126000 2.365000 -0.406000
C 2.588000 2.374000 0.888000
C 4.698000 2.287000 1.157000
N -4.403000 2.166000 -1.266000
N -2.330000 2.342000 -0.140000
N -2.257000 2.321000 2.153000
N 0.537000 2.401000 -0.242000
N 2.498000 2.388000 -1.597000
N 3.587000 2.326000 1.849000
N 4.487000 2.320000 -0.214000
N 0.396000 2.471000 -2.566000
O -2.454000 2.311000 -2.436000
O 0.482000 2.340000 2.059000
H -4.871000 2.039000 -2.156000
H -6.160000 1.987000 -0.158000
H -4.950000 2.118000 2.032000
H -2.709000 2.171000 3.044000
H -1.212000 2.331000 2.112000
H -0.509000 2.390000 -0.222000
H 5.695000 2.224000 1.569000
H 5.179000 2.214000 -0.945000
H 0.870000 2.330000 -3.447000
H -0.630000 2.383000 -2.529000 
