15
Energy =
N    -0.6648175    3.1006835    0.4015617 
C     0.2517876    2.0409505   -0.1302740 
C    -0.2854288    0.6432043    0.1654222 
C     0.6510503   -0.4393936   -0.3795630 
H     0.2608328   -1.4385388   -0.1657442 
H     0.3468503    2.2199410   -1.2023864 
H    -0.7626281    3.0149029    1.4267673 
H    -0.2963839    4.0727081    0.1983608 
H    -1.5983795    3.0260334   -0.0352049 
H     1.6457770   -0.3626172    0.0711626 
H     0.7677256   -0.3487148   -1.4644293 
H    -0.4070677    0.5150342    1.2483994 
H    -1.2814814    0.5277994   -0.2800167 
H     1.2245772    2.2079214    0.3348305 
Cl    0.2152273    6.0192881   -0.0797166 
