126
Energy =
O    -3.0247900   -2.8610700   -2.9524100 
O    -4.1040600    0.7307400   -3.1900400 
O    -1.9022600    3.7174800   -3.1964900 
O     1.7256700    3.9662600   -3.2266300 
O     3.8776700    0.9855700   -2.9831200 
O     3.3225300   -2.6413500   -2.9083400 
O     0.2083300   -4.3572100   -2.8575700 
O    -3.2050700   -2.5122100    3.0816600 
O    -4.2043000    0.9086400    2.9364000 
O    -2.0529900    3.7402400    2.8802000 
O     1.6111300    3.7515000    2.8697700 
O     4.2547500    1.1787500    3.1039700 
O     3.4761400   -2.3675300    3.1619000 
O     0.1940200   -4.1007700    3.2677900 
N    -3.1443100   -4.2784600   -1.1124500 
N    -4.4798000   -2.4855200   -1.1718000 
N    -5.1896400   -0.1599400   -1.3351600 
N    -4.8197400    2.0425700   -1.4038900 
N    -3.3458800    3.9909000   -1.3883400 
N    -1.3991800    5.0979700   -1.3881900 
N     1.0476600    5.2204600   -1.3845700 
N     3.0537600    4.2348800   -1.3337200 
N     4.6323300    2.3764400   -1.2767800 
N     5.1371700    0.2011100   -1.1885000 
N     4.7663300   -2.2003700   -1.1373300 
N     3.5231600   -4.0487300   -1.0654700 
N     1.3449500   -5.1372500   -0.9814100 
N    -0.8886000   -5.2077100   -0.9896200 
N    -3.0905600   -4.0413300    1.3275700 
N    -4.6659300   -2.4550300    1.2729100 
N    -5.2531300   -0.0892300    1.1142700 
N    -4.8553700    2.1089500    1.0508200 
N    -3.4579600    4.1049300    1.0609100 
N    -1.4453700    5.0622500    1.0642000 
N     0.9851800    5.0809500    1.0635600 
N     3.0591600    4.2507400    1.1176900 
N     4.6637900    2.4152900    1.1741300 
N     5.3556900    0.2907700    1.2533900 
N     4.8688600   -2.1095700    1.3119700 
N     3.4877100   -3.8710600    1.3822600 
N     1.3432400   -5.0379600    1.4722800 
N    -0.8907800   -5.0821700    1.4586400 
C    -3.8648300   -4.3615700    0.1374400 
C    -4.8839300   -3.1798900    0.0419900 
C     0.2202200   -4.8370300   -1.7362900 
C     2.6712700   -5.1027800   -1.5655000 
C    -5.8497300    0.3248900   -0.1417800 
C    -5.5796900    1.8660900   -0.1833000 
C     3.8063700   -2.9251600   -1.8240500 
C     5.4506000   -1.0920600   -1.7618600 
C    -3.4279200    4.8186400   -0.2011000 
C    -2.0409500    5.5438000   -0.1712500 
C     4.4720300    1.1676000   -1.9330600 
C     4.2467100    3.6322900   -1.8888400 
C     1.6046500    5.6518200   -0.1197600 
C     3.0344200    5.0160400   -0.1128800 
C     1.9135900    4.4146300   -2.1111000 
C     5.4096000    2.2599700   -0.0594000 
C     5.8274000    0.7524100   -0.0347800 
C    -2.2052700   -5.2690700   -1.5913400 
C    -3.4879200   -3.1682700   -1.8663900 
C     5.1852000   -2.8350400    0.1015000 
C     4.2647500   -4.0988300    0.1798300 
C    -5.3149700   -1.5048600   -1.8463600 
C    -4.6310900    0.8581300   -2.1001700 
C     1.0280700   -5.7904900    0.2752200 
C    -0.5366900   -5.8317100    0.2720000 
C    -4.4844400    3.3256700   -1.9892600 
C    -2.1757100    4.1995700   -2.1151300 
C    -2.2269400   -4.9980600    2.0006400 
C    -3.6021800   -2.9454500    2.0126300 
C    -0.2022600    5.6928700   -1.9493000 
C     0.2163500   -4.6634000    2.1885500 
C     2.6753400   -4.8853100    2.0235400 
C    -5.4943500   -1.3692000    1.7492400 
C    -4.7051200    0.9679700    1.8257800 
C     3.8848700   -2.7305000    2.0766800 
C     5.6503700   -1.0055800    1.8336000 
C    -4.6131500    3.4275500    1.6024600 
C    -2.2876600    4.2360100    1.7897300 
C     4.6983900    1.2775000    1.9751700 
C     4.2567800    3.6945800    1.7149600 
C    -0.2362500    5.5922000    1.6510600 
C     1.8562100    4.2902800    1.8027000 
H    -4.3371000   -5.3470300    0.2436400 
H     4.0457600    3.5320300    2.7748200 
H    -0.2375500    5.2940600    2.7022300 
H    -0.2414600    6.6872100    1.5628100 
H     5.0735400    4.4189500    1.5947800 
H     6.7152500   -1.2267700    1.6868500 
H    -5.5012700    4.0508800    1.4373000 
H    -4.4323900    3.2948900    2.6717300 
H     5.4191200   -0.9275700    2.8987300 
H     3.1962400   -5.8507400    1.9667800 
H    -6.5474500   -1.6439500    1.6083900 
H    -5.2717700   -1.2431000    2.8112700 
H     2.5509100   -4.5798200    3.0654500 
H    -0.1826200    5.4278500   -3.0093000 
H    -2.1276100   -4.6667000    3.0372100 
H    -2.6980700   -5.9899000    1.9603400 
H    -0.2587500    6.7821900   -1.8267500 
H    -0.9514300   -6.8477000    0.3207200 
H    -5.3601700    3.9855800   -1.9248300 
H     1.4957000   -6.7834800    0.3131900 
H    -4.2257200    3.1359900   -3.0339900 
H     4.8182200   -5.0446000    0.2522500 
H    -6.3639100   -1.8241400   -1.7747700 
H     6.2571600   -3.0705900    0.0635500 
H    -4.9969300   -1.4769100   -2.8913900 
H     6.9098700    0.5919700   -0.1281700 
H    -2.6298200   -6.2662400   -1.4190300 
H     6.2604900    2.9541400   -0.0853000 
H    -2.0734800   -5.0900700   -2.6608700 
H     3.8468100    5.7551600   -0.1155700 
H     4.0321100    3.4282100   -2.9407000 
H     1.6077900    6.7481400   -0.0547500 
H     5.0863100    4.3344400   -1.7992000 
H    -2.1150100    6.6393300   -0.1549000 
H     6.5351700   -1.2551500   -1.6991600 
H    -4.2833500    5.5041000   -0.2678700 
H     5.1279800   -1.0684800   -2.8055100 
H    -6.4940700    2.4739700   -0.2104000 
H     2.5409800   -4.9264500   -2.6357600 
H    -6.9165200    0.0635600   -0.1588800 
H     3.1617500   -6.0690700   -1.3920900 
H    -5.9307700   -3.5022400   -0.0338700 
