133
Energy =
C     6.6886328   -0.9718646    2.0770381 
C    -1.1927609    6.5650407   -1.6513841 
C    -1.8434844    7.0002018   -0.3207192 
C     7.0743372   -1.6581345    0.7513024 
C     7.3946840   -3.8845202   -0.4559238 
C    -3.9975449    7.0293065    1.0488253 
C     7.0424192   -3.1854589    0.8612316 
C    -3.3364291    6.6621951   -0.2830975 
C    -5.4744656    6.6247707    1.1156962 
C     7.4303515   -5.4128235   -0.3433047 
C     7.7903827   -6.1002246   -1.6639214 
C    -6.1295769    6.9798683    2.4540580 
C     3.8429609    3.9388487    0.1978582 
C     5.3812034    2.4118962    1.0299736 
C     2.2479500    5.4022373   -0.6459109 
C     4.8481539    4.9519069    0.1271487 
C     6.1447768    4.6348128    0.5826770 
C     4.4868732    6.2121506   -0.3958974 
N     5.6118535    1.0977152    1.4028775 
N     0.9167262    5.5940257   -0.9628466 
C     6.4237124    3.3787820    1.0505257 
C     3.2017013    6.4473944   -0.8017656 
C     0.3187740    6.6803401   -1.6012606 
C     6.7601832    0.5404204    1.9542715 
N     4.1280749    2.6789102    0.6310946 
N     2.5544502    4.1852641   -0.1678731 
O     7.7524074    1.1804181    2.2854529 
O     0.9344976    7.6375612   -2.0564971 
H     4.8658113    0.4270640    1.1451849 
H     0.2626414    4.8743246   -0.6028518 
H     2.8762383    7.3896288   -1.2192500 
H     7.3978610    3.0876023    1.4164804 
H     6.9194150    5.3974742    0.5535795 
H     5.2408533    6.9922540   -0.4701301 
H    -1.5412543    7.1982339   -2.4714648 
H     7.3871090   -1.2603567    2.8673392 
H     8.0787950   -1.3289135    0.4567266 
H    -1.6853346    8.0765228   -0.1770094 
H     6.3805459   -1.3362709   -0.0335932 
H    -1.3472140    6.4829391    0.5077781 
H     5.6781222   -1.2862611    2.3594394 
H    -1.4805946    5.5277355   -1.8547715 
H    -3.8548423    7.1752040   -1.1060186 
H     7.7416499   -3.5101134    1.6447736 
H     8.3735306   -3.5272610   -0.8059979 
H    -3.9056384    8.1111672    1.2239704 
H    -3.4528551    6.5346053    1.8653095 
H     6.6677048   -3.5913500   -1.2268396 
H    -3.4515770    5.5840198   -0.4536247 
H     6.0414519   -3.5017143    1.1862254 
H    -6.0211975    7.1131742    0.2971416 
H     8.1565469   -5.6984349    0.4298150 
H     6.4536443   -5.7742862    0.0053628 
H    -5.5541955    5.5436071    0.9411868 
H     8.7801026   -5.7831724   -2.0126041 
H    -6.0846173    8.0597167    2.6398115 
H    -5.6178820    6.4786225    3.2841105 
H     7.0662943   -5.8494809   -2.4474526 
H    -7.1827421    6.6786119    2.4780046 
H     7.8055870   -7.1903097   -1.5571452 
C    -2.6957620   -1.7274822    1.1179347 
C    -3.4980746   -2.5174752    0.0430036 
C    -4.5013122   -2.8394019    2.1834708 
C    -4.8792057   -2.7369435    0.7042989 
C    -2.9173151   -1.3407221   -3.3828219 
C    -7.6375411   -0.4749981   -0.2381528 
C    -1.2457412   -2.3924228   -1.8256054 
C     2.3156299   -3.1751894    0.6753156 
C    -6.8967012   -2.5290453   -1.4827269 
C    -3.1768870   -3.7597924   -2.7172194 
C    -7.8810777   -2.7403210    0.8433312 
C     2.7077084   -3.6650428   -0.7232854 
C    -2.7108268   -2.3691467   -2.2730947 
C    -7.0431402   -1.8759130   -0.1046447 
C    -4.1840395   -4.2601583    2.6430885 
C     3.2834141   -5.0838919   -0.6978285 
C     3.7140457   -5.5696619   -2.0847187 
C    -1.4776651    0.4352671    0.7489255 
C    -1.8749012    1.7551561    0.5496717 
C    -3.6791219    0.6300904    0.7617116 
N    -2.6392375   -0.2908930    0.8896532 
C     0.7175448    0.8625863    0.5993613 
N     0.4391460    2.1851743    0.3971526 
N     2.0518384    0.5266982    0.5901483 
N     1.7912016   -1.8135022    0.6791428 
C    -0.8654538    2.7408471    0.3432249 
C     2.6180580   -0.7549290    0.6236391 
N    -0.2175753   -0.0576557    0.7826352 
N    -3.2573048    1.8561919    0.5624271 
O    -5.7284065   -1.6212026    0.4854807 
O    -3.5838501   -1.8792937   -1.2043061 
O    -3.3089582   -2.0276030    2.3658983 
O     3.8564759   -0.8652641    0.5954033 
O    -1.0049490    3.9500469    0.1199356 
O    -5.3899317   -5.0255082    2.5051839 
H     0.7910300   -1.6019728    0.7255672 
H     2.7542885    1.2969352    0.5500330 
H     1.2221770    2.8592120    0.2172027 
H    -1.6493536   -2.0413607    1.1554038 
H    -3.0211150   -3.5020227   -0.0438344 
H    -5.3371165   -3.6638529    0.3520152 
H    -5.2566850   -5.8854311    2.9310180 
H    -5.2911086   -2.4128147    2.8066652 
H    -4.7061480    0.3025178    0.8168103 
H     1.8285818   -3.6274083   -1.3801670 
H     3.1888947   -3.2088639    1.3349267 
H     3.4491045   -2.9707836   -1.1355286 
H     2.5388333   -5.7757929   -0.2798339 
H     4.1443796   -5.1086889   -0.0173583 
H     1.5416036   -3.8192192    1.1062398 
H    -0.9329021   -1.4094460   -1.4643770 
H    -3.8440562   -4.2272362    3.6860115 
H    -3.3745634   -4.6852073    2.0286437 
H    -6.2376737   -1.9270391   -2.1128437 
H    -2.6124257   -0.3488680   -3.0375022 
H    -1.0781126   -3.1295050   -1.0315597 
H    -3.9727573   -1.2999055   -3.6671768 
H    -0.6050957   -2.6710225   -2.6684511 
H    -4.2230534   -3.7254581   -3.0334838 
H    -7.0156569    0.1398702   -0.8953990 
H    -7.4232243   -3.7208852    1.0075589 
H    -7.6938220    0.0068243    0.7426779 
H    -7.8790739   -2.6069931   -1.9602704 
H    -7.9889068   -2.2433429    1.8124639 
H    -2.3261027   -1.6069482   -4.2645737 
H    -8.6465311   -0.5297312   -0.6585302 
H    -6.4839978   -3.5408308   -1.4111157 
H    -2.5682787   -4.1133801   -3.5560325 
H    -8.8794075   -2.8995158    0.4218268 
H    -3.0803994   -4.4930269   -1.9083452 
H     2.8624010   -5.5930245   -2.7745267 
H     4.4708163   -4.9029453   -2.5127231 
H     4.1405694   -6.5770584   -2.0401809 
