15
C -2.230000 -0.152000 2.591000
C -0.950000 -0.739000 2.643000
C 0.131000 0.153000 2.667000
C -1.196000 1.917000 2.639000
C 0.791000 -1.962000 2.624000
N -2.328000 1.192000 2.594000
N 0.075000 1.492000 2.674000
N -0.520000 -2.058000 2.616000
N 1.248000 -0.659000 2.668000
N -3.378000 -0.885000 2.563000
H -1.335000 2.995000 2.632000
H 1.478000 -2.796000 2.584000
H 2.209000 -0.350000 2.597000
H -4.215000 -0.388000 2.285000
H -3.310000 -1.855000 2.283000
