28
Energy =
C     0.8187401    0.9089024    0.8813729 
C    -1.3935945    0.8979417    0.0379098 
C     0.6289883   -0.2910307    0.1528794 
C    -0.7552825   -0.2900799   -0.3920977 
C     1.7323510   -1.1448238    0.0534709 
C     3.0775713    0.3690588    1.3409440 
C    -3.3559459    0.3023128   -1.1368390 
C     2.9621385   -0.8131446    0.6251966 
C    -0.4522643    1.7044716    0.8645253 
C    -2.6939127    1.2134137   -0.3160014 
C     2.0109876    1.2560185    1.4884193 
C    -2.7558684   -0.8692467   -1.5917626 
C    -1.4446801   -1.1781112   -1.2188694 
N     1.6827278   -2.4550948   -0.6347273 
N     4.3839384    0.6948966    1.9633334 
N    -4.7522094    0.5932756   -1.5460516 
O     0.6367943   -3.1017457   -0.5407776 
O     2.6994129   -2.8172640   -1.2236434 
O     4.4582976    1.7602570    2.5765145 
O    -5.2573170    1.6332211   -1.1200498 
O     5.2968868   -0.1197976    1.8225374 
O    -5.3094736   -0.2228720   -2.2825602 
O    -0.6525360    2.7742581    1.4078350 
H    -0.9959127   -2.0988698   -1.5644627 
H     3.8128660   -1.4747936    0.5180053 
H    -3.3248032   -1.5334684   -2.2317589 
H     2.1198843    2.1787094    2.0473322 
H    -3.1777844    2.1236055    0.0193256 
