29
C -4.127538 -8.273547 -15.224887
C -4.997304 -7.682800 -16.150263
C -6.056402 -8.450504 -16.653267
C -6.260255 -9.759694 -16.217693
C -5.400847 -10.326978 -15.275882
C -4.326629 -9.582890 -14.788046
C -4.820615 -6.240143 -16.558153
C -5.697086 -5.258939 -15.718866
C -5.414712 -3.817756 -16.179678
C -7.938789 -6.041588 -14.998100 
C -9.397268 -6.178134 -15.394150
N -4.474220 -3.160081 -15.461406
N -7.120764 -5.492756 -15.925400
O -7.534296 -6.441358 -13.892727
O -5.989625 -3.354134 -17.169427
H -9.632640 -7.243384 -15.485983
H -4.267606 -2.202197 -15.716412
H -10.022254 -5.766658 -14.596809
H -9.640526 -5.679899 -16.336960
H -7.504470 -5.059242 -16.761218
H -5.482756 -5.389188 -14.656556
H -5.074894 -6.099082 -17.615077
H -3.776712 -5.936398 -16.426167
H -6.727090 -8.012860 -17.388869
H -3.288316 -7.699108 -14.838954
H -7.089663 -10.338585 -16.615527
H -3.650657 -10.017818 -14.057445
H -5.563781 -11.342466 -14.927066
H -4.170184 -3.512149 -14.551471 
