15
Energy =
C     0.7758859   -1.4565549    4.0486280 
C     0.6812491   -1.1273857    2.6991940 
C     0.1585522   -0.6534672    5.0105501 
C     0.0002801    0.0275583    2.2987437 
C    -0.5416037    0.4894417    4.6167938 
C    -0.6028620    0.8350109    3.2688362 
C    -0.0550501    0.3960226    0.8426244 
O    -0.3440421    1.5998019    0.5368741 
O     0.1950277   -0.5070961   -0.0073985 
H     1.3190378   -2.3456350    4.3546188 
H     1.1460149   -1.7460341    1.9399273 
H     0.2216190   -0.9176998    6.0625231 
H    -1.0257474    1.1164689    5.3601808 
H    -1.1063541    1.7458638    2.9624013 
Na   -2.3692200    2.4003904    0.3497129 
