37
Energy =
N     0.5995719   -3.3335600   -4.0302018 
C     0.2535374   -2.2000204   -4.7001749 
N    -0.0293515   -2.3935258   -5.9842708 
C     0.1344038   -3.7645615   -6.1707925 
C     0.5239683   -4.3697807   -4.9479454 
C    -0.0286800   -4.5432679   -7.3201000 
C     0.2017561   -5.9150842   -7.2118638 
C     0.5863667   -6.5033676   -5.9924312 
C     0.7553979   -5.7398855   -4.8357811 
N     0.2466158   -0.9855093   -4.0376691 
C    -0.0422272    0.1923066   -4.6450492 
N     0.0905297    1.3183573   -3.9037002 
C    -0.1205648    2.5891043   -4.4059148 
N     0.1382002    3.6750136   -3.6265915 
C    -0.1479941    4.7901364   -4.3985679 
C    -0.5764234    4.2813279   -5.6519645 
N    -0.5493599    2.8883380   -5.6273382 
C    -0.9463052    5.1567981   -6.6769483 
C    -0.8768570    6.5257677   -6.4169164 
C    -0.4504576    7.0175883   -5.1689833 
C    -0.0778942    6.1571843   -4.1346440 
N    -0.3990811    0.2426393   -5.9137243 
Cl   -2.3322034    0.0408877   -1.8382559 
H    -0.5915095    1.1733688   -6.3076444 
H    -0.4291819   -0.6492934   -6.4256986 
H     0.4160670   -0.9901299   -3.0091285 
H     0.3046061    1.2262214   -2.8891867 
H     0.5115413    3.6247476   -2.6479330 
H     0.7689621   -3.3777274   -2.9936330 
H    -1.1588728    7.2304356   -7.1939843 
H     0.0820051   -6.5459334   -8.0880171 
H     0.7568618   -7.5751530   -5.9495477 
H    -0.4103996    8.0906482   -5.0059830 
H    -0.3256803   -4.0924531   -8.2623696 
H    -1.2769155    4.7803129   -7.6403946 
H     1.0583980   -6.1981070   -3.8991500 
H     0.2497655    6.5426431   -3.1739981 
