20
Energy =
C     0.0000000    1.4161777    0.0000000 
C     0.0000000   -1.4161777    0.0000000 
C     1.2361521   -0.6792562    0.0000000 
C     1.2361521    0.6792562    0.0000000 
C    -1.2361521   -0.6792562    0.0000000 
C    -1.2361521    0.6792562    0.0000000 
C     0.0000000   -2.8125683    0.0000000 
C     0.0000000    2.8125683    0.0000000 
C     1.2108971    3.5547758    0.0000000 
C    -1.2108971    3.5547758    0.0000000 
C     1.2108971   -3.5547758    0.0000000 
C    -1.2108971   -3.5547758    0.0000000 
N    -2.2114475    4.1502423    0.0000000 
N     2.2114475    4.1502423    0.0000000 
N     2.2114475   -4.1502423    0.0000000 
N    -2.2114475   -4.1502423    0.0000000 
H     2.1717367    1.2300795    0.0000000 
H     2.1717367   -1.2300795    0.0000000 
H    -2.1717367   -1.2300795    0.0000000 
H    -2.1717367    1.2300795    0.0000000 
