20
Energy =
C     0.0000000    1.4161789    0.0000000 
C     0.0000000   -1.4161789    0.0000000 
C    -1.2361605   -0.6792587    0.0000000 
C    -1.2361605    0.6792587    0.0000000 
C     1.2361605   -0.6792587    0.0000000 
C     1.2361605    0.6792587    0.0000000 
C     0.0000000   -2.8124191    0.0000000 
C     0.0000000    2.8124191    0.0000000 
C    -1.2107738    3.5548078    0.0000000 
C    -1.2107738   -3.5548078    0.0000000 
C     1.2107738   -3.5548078    0.0000000 
C     1.2107738    3.5548078    0.0000000 
N    -2.2116247    4.1497628    0.0000000 
N     2.2116247   -4.1497628    0.0000000 
N     2.2116247    4.1497628    0.0000000 
N    -2.2116247   -4.1497628    0.0000000 
H    -2.1718103   -1.2300152    0.0000000 
H     2.1718103   -1.2300152    0.0000000 
H     2.1718103    1.2300152    0.0000000 
H    -2.1718103    1.2300152    0.0000000 
