26
Energy =
C    -1.7633265   -0.1334934    1.2012127 
C    -0.6029499   -0.5512160    1.7321238 
H    -0.5927374   -0.9216022    2.7606060 
C     0.5206819   -0.3778247   -0.5250467 
C     0.7149538   -0.5539959    0.9913672 
H     0.0575401   -1.3038253   -0.9078793 
H     1.2469768   -1.4991283    1.1827566 
H     1.3616987    0.2477856    1.3871382 
C    -0.4656575    0.7731325   -0.7724920 
C    -1.8438089    0.4151372   -0.2085514 
H    -0.0971453    1.6841651   -0.2729472 
H    -0.5374411    0.9947988   -1.8484871 
H    -2.5000234    1.3007349   -0.2144860 
H    -2.3351283   -0.3320222   -0.8570572 
C     2.3773419   -1.1837717   -1.9711374 
C     1.8443175   -0.1920674   -1.2405139 
H     3.3371214   -1.0700657   -2.4755142 
H     1.8673400   -2.1408895   -2.0842820 
C     2.5416282    1.1434564   -1.1024513 
H     3.5361606    1.1146032   -1.5645897 
H     1.9611592    1.9399529   -1.5906801 
H     2.6615472    1.4309995   -0.0481243 
C    -3.0637424   -0.1883114    1.9647224 
H    -3.8134962   -0.7740145    1.4103827 
H    -2.9326283   -0.6441918    2.9543215 
H    -3.4803822    0.8216540    2.0996089 
