30
Energy =
C    -0.0753047   -1.2963504    4.1320847 
C     0.5070340   -1.1273968    2.8899884 
C    -0.1923606   -0.5104632    1.8244945 
C    -1.5255328   -0.0665842    2.0750018 
C    -2.1012515   -0.2502948    3.3548165 
C    -1.3911023   -0.8551286    4.3710907 
C    -2.2559171    0.5580379    1.0239697 
C    -1.7047279    0.7382641   -0.2137455 
C    -0.3759586    0.3113787   -0.5122136 
C     0.3848081   -0.3150423    0.5092849 
C     1.7140087   -0.7408416    0.2111372 
C     2.2655824   -0.5596949   -1.0262784 
C     1.5348212    0.0640050   -2.0776118 
C     0.2010605    0.5064041   -1.8275568 
C    -0.4991521    1.1214080   -2.8936293 
C     0.0831466    1.2903674   -4.1357333 
C     1.3998713    0.8515315   -4.3740402 
C     2.1106857    0.2482119   -3.3573150 
H    -1.5146280    1.4711638   -2.7456560 
H     3.1282340   -0.0972063   -3.5232924 
H    -0.4817244    1.7655688   -4.9325082 
H     1.8504348    0.9881931   -5.3534255 
H     3.2807905   -0.8936479   -1.2260966 
H     2.3062863   -1.2208428    0.9820318 
H    -2.2967978    1.2188421   -0.9844384 
H    -3.2706404    0.8931814    1.2242473 
H    -3.1182525    0.0965246    3.5212019 
H    -1.8417218   -0.9916831    5.3504728 
H     1.5217744   -1.4790779    2.7414917 
H     0.4888202   -1.7736034    4.9281625 
