29
C -1.516698 0.268452 0.000000
C -1.248162 -2.170251 0.000000
C -3.291523 -1.347683 0.000000
C -2.912179 -0.027919 0.000000
C -5.017031 0.000331 0.000000
N -0.757332 -0.901161 0.000000
N -2.520946 -2.449695 0.000000
N -4.020006 0.796964 0.000000
N -4.644678 -1.325577 0.000000
N -0.345970 -3.155346 0.000000
O -0.960132 1.343640 0.000000
H 0.241252 -0.765924 0.000000
H -6.048336 0.289583 0.000000
H -5.236280 -2.122611 0.000000
H -0.692870 -4.083860 0.000000
H 0.640827 -2.988513 0.000000
C 3.026394 -1.446405 0.000000
C 4.944918 0.000029 0.000000
C 4.167491 1.087399 0.000000
C 2.739967 0.855105 0.000000
N 4.398535 -1.237850 0.000000
N 2.230700 -0.356844 0.000000
N 1.909942 1.885083 0.000000
O 2.617230 -2.584808 0.000000
H 4.963288 -2.056436 0.000000
H 6.017589 0.049270 0.000000
H 4.576320 2.077730 0.000000
H 2.256529 2.813822 0.000000
H 0.914102 1.732911 0.000000
