56
C 4.969000 4.711000 -2.053000
C 4.286000 3.344000 -2.177000
C 2.761000 3.407000 -2.028000
C 2.088000 2.036000 -2.152000
C 6.494000 4.642000 -2.189000
C 7.181000 6.007000 -2.057000
C 8.707000 5.932000 -2.177000
C 9.398000 7.293000 -2.036000
C 10.925000 7.212000 -2.147000
C 11.620000 8.571000 -2.003000
C 13.147000 8.484000 -2.115000
C 13.848000 9.841000 -1.976000
C 15.373000 9.749000 -2.098000
C 16.078000 11.105000 -1.970000
C 17.602000 11.012000 -2.110000
C 18.308000 12.368000 -1.995000
C 19.831000 12.278000 -2.151000
C 20.527000 13.639000 -2.046000
H 21.613000 13.541000 -2.151000
H 20.173000 14.321000 -2.828000
H 20.066000 11.821000 -3.122000
H 20.231000 11.601000 -1.385000
H 18.070000 12.822000 -1.023000
H 17.907000 13.049000 -2.760000
H 17.848000 10.558000 -3.080000
H 17.996000 10.332000 -1.342000
H 15.829000 11.554000 -0.999000
H 15.687000 11.788000 -2.737000
H 15.630000 9.299000 -3.068000
H 15.759000 9.066000 -1.329000
H 13.588000 10.287000 -1.006000
H 13.465000 10.526000 -2.745000
H 13.412000 8.039000 -3.084000
H 13.527000 7.799000 -1.345000
H 11.352000 9.016000 -1.035000
H 11.240000 9.256000 -2.774000
H 11.194000 6.770000 -3.117000
H 11.307000 6.527000 -1.378000
H 9.128000 7.738000 -1.069000
H 9.015000 7.976000 -2.808000
H 8.972000 5.490000 -3.149000
H 9.096000 5.248000 -1.410000
H 6.916000 6.453000 -1.089000
H 6.789000 6.685000 -2.828000
H 6.751000 4.200000 -3.162000
H 6.894000 3.961000 -1.425000
H 4.712000 5.157000 -1.082000
H 4.536000 2.901000 -3.152000
H 4.694000 2.665000 -1.416000
H 2.514000 3.850000 -1.054000
H 2.353000 4.086000 -2.789000
H 1.003000 2.112000 -2.026000
H 2.283000 1.592000 -3.136000
H 2.468000 1.344000 -1.393000
H 4.567000 5.387000 -2.821000
H 20.324000 14.109000 -1.076000
