108
Energy =
C    -0.8151162   -0.1886967    5.0562082 
N    -1.1306032   -1.4324995    4.3763940 
C    -0.0064209   -2.1780005    4.0764741 
N     1.0986669   -1.4265910    4.4300640 
C     0.7447823   -0.1568625    5.0317133 
N    -1.1873809    1.0178570    4.3382883 
C    -0.0965334    1.7101630    3.8643606 
N     1.0383430    1.0182433    4.2200081 
C     2.4497556   -1.9477536    4.3487039 
N     3.2134190   -1.4684710    3.2141065 
C     3.9550275   -0.2250379    3.1947528 
C     4.7627028   -0.3041648    1.8622624 
N     4.2436096   -1.5111691    1.2348908 
C     3.4120411   -2.2276466    2.0766382 
N     3.1528181    0.9787048    3.0212832 
C     3.5152079    1.6951833    1.8952700 
N     4.4335388    0.9402584    1.1953031 
C    -2.4705172   -1.9638058    4.2335619 
N    -3.2136971   -1.4046342    3.1198587 
C    -3.4205395   -2.1103396    1.9490091 
N    -4.3164034   -1.3926965    1.1781555 
C    -4.8227764   -0.2152067    1.8588647 
C    -4.0502028   -0.2226984    3.2162985 
N    -3.3400606    1.0462560    3.2010145 
C    -3.6079194    1.7954156    2.0769957 
N    -4.4426641    1.0576880    1.2672820 
C    -4.8957405   -1.9379721   -0.0350477 
N    -4.3356765   -1.3924074   -1.2545611 
C    -4.7646690   -0.1437025   -1.8597988 
C    -3.9559090   -0.0999369   -3.1932770 
N    -3.2632850   -1.3724147   -3.2097542 
C    -3.5143448   -2.1331439   -2.0832331 
N    -4.3338255    1.0569732   -1.1654977 
C    -3.3686131    1.7518235   -1.8579692 
N    -3.1020954    1.0697688   -3.0229030 
C    -4.9744475    1.5809647    0.0271090 
C    -2.5361773    1.5530315    4.2923521 
C    -2.3046053    1.6411055   -4.0929510 
N    -0.9992604    1.0333429   -4.2414633 
C    -0.7480297   -0.1618420   -5.0357176 
C     0.8096838   -0.2479253   -5.0582359 
N     1.2235382    0.9864775   -4.4204483 
C     0.1584386    1.7403257   -3.9729662 
N    -1.1458840   -1.4113208   -4.4215608 
C    -0.0678309   -2.1817342   -4.0290800 
N     1.0824280   -1.4661108   -4.3087652 
C     2.5982588    1.4332377   -4.3053396 
N     3.3147366    0.8750989   -3.1750029 
C     3.6184970    1.6307961   -2.0566349 
N     4.4282860    0.8615977   -1.2404321 
C     4.8060742   -0.3999837   -1.8534064 
C     4.0327471   -0.3877101   -3.2098599 
N     4.3038438   -1.5917668   -1.1941467 
C     3.4006654   -2.2933315   -1.9681431 
N     3.2083016   -1.5795880   -3.1344237 
C     2.3963333   -2.0778558   -4.2233208 
C    -2.5134033   -1.8842209   -4.3408912 
C     4.8268403   -2.1136637    0.0499057 
C     5.0396318    1.3980063   -0.0401734 
C     2.3687117    1.5817855    4.0781737 
O     2.9600830   -3.3474925    1.8662331 
O     3.1075378    2.8111570    1.5890003 
O    -0.1308929    2.7786576    3.2481011 
O     3.2589875    2.7814231   -1.8415877 
O     2.8905324   -3.3727538   -1.6870471 
O    -3.1119021   -3.2718134   -1.8739630 
O    -2.8502579    2.8146531   -1.5053035 
O     0.0074897   -3.3135564    3.6154039 
O    -0.1204326   -3.3088607   -3.5502537 
O    -3.1968657    2.9321943    1.8492675 
O    -2.9241648   -3.1932000    1.6607055 
O     0.2210135    2.8488472   -3.4507143 
H     2.3696079   -3.0311833    4.2504383 
H    -5.9102529   -0.2733125    1.9664991 
H    -4.6984571   -0.2835639    4.0958892 
H    -2.4603129    2.6329191    4.1587602 
H    -3.0296181    1.3221581    5.2409352 
H    -2.3700898   -3.0356397    4.0563226 
H    -3.0314297   -1.7805771    5.1558162 
H     5.8938729   -0.4567355   -1.9640145 
H     4.6821508   -0.4300606   -4.0903684 
H     3.1279208    1.1755084   -5.2276353 
H     2.5758030    2.5154276   -4.1689343 
H     2.9288703   -1.9140298   -5.1661821 
H     2.2431965   -3.1446740   -4.0533821 
H     4.5810699   -0.1393283    4.0888613 
H     5.8453854   -0.3843040    2.0035187 
H     4.9207122    2.4818713   -0.0758675 
H     6.1006901    1.1305193   -0.0290131 
H     4.5899211   -3.1782745    0.0813247 
H     5.9116420   -1.9632672    0.0696558 
H    -4.5762568    0.0124460   -4.0877393 
H    -5.8504511   -0.1325201   -1.9952379 
H    -6.0434144    1.3556584   -0.0300302 
H    -4.8159964    2.6600822    0.0415939 
H    -5.9753016   -1.7552562   -0.0206843 
H    -4.6918566   -3.0097775   -0.0430912 
H     1.2358376   -0.3169879   -6.0642475 
H    -1.2016469   -0.0617574   -6.0272023 
H    -2.1439718    2.6936355   -3.8547939 
H    -2.8603987    1.5429316   -5.0319803 
H    -2.4746581   -2.9692139   -4.2350733 
H    -3.0348557   -1.6091732   -5.2627531 
H     2.9844462   -1.6864208    5.2669588 
H     2.2517404    2.6375460    3.8291038 
H     2.8969597    1.4709547    5.0315478 
H     1.2044970   -0.0575883    6.0198800 
H    -1.2464207   -0.1776697    6.0618157 
