51
Energy =
Fe    0.1424000    0.1264300   -0.0009900 
C     1.4446200    0.3396300    1.5263400 
C    -0.0630800   -1.4137100    1.3088200 
C     1.0332800   -1.6561400    0.4289400 
C     1.9632400   -0.5759800    0.5636300 
C     0.1846000   -0.1730600    1.9923500 
C    -1.4444000    0.1184700   -1.2705400 
C    -1.5022200    1.2577800   -0.4141200 
C    -0.3024100    2.0171400   -0.5969100 
C     0.5030500    1.3492400   -1.5660500 
C    -0.1989700    0.1672400   -1.9877400 
C    -0.7310300    0.5125900    2.9392600 
C     0.3222800   -0.8596200   -2.9255200 
N    -0.3850700    0.2470100    4.4177900 
N     0.0789300   -0.5090300   -4.4064000 
C    -0.4496600   -1.2293900    4.7067100 
C     0.9934100    0.7665500    4.7340200 
C    -1.4096500    0.9807100    5.2402400 
C     0.7929200    0.7681200   -4.7659700 
C     0.6312400   -1.6499100   -5.2175700 
C    -1.3962900   -0.3557600   -4.6659900 
H     1.8921100    1.2706300    1.8409900 
H    -0.9387000   -2.0335500    1.4336100 
H     1.1338700   -2.4949200   -0.2441800 
H     2.8800500   -0.4590900    0.0053300 
H    -2.1883100   -0.6595200   -1.3573700 
H    -2.2997100    1.4948100    0.2746700 
H    -0.0396000    2.9198700   -0.0658000 
H     1.4804200    1.6493800   -1.9130700 
H    -1.7635600    0.1787200    2.8246400 
H    -0.6929200    1.5983600    2.8336900 
H     1.4038000   -0.9815700   -2.8407200 
H    -0.1591900   -1.8279900   -2.7795100 
H     0.3135700   -1.7361700    4.1179400 
H    -0.2633900   -1.3720500    5.7722200 
H    -1.4392900   -1.5941100    4.4306200 
H     1.7257900    0.1845200    4.1757000 
H     1.0456200    1.8174200    4.4468600 
H     1.1571300    0.6482400    5.8060900 
H    -2.3959200    0.5940400    4.9821900 
H    -1.1882200    0.8134100    6.2951600 
H    -1.3520000    2.0412400    4.9926400 
H     1.8455800    0.6677300   -4.4990500 
H     0.6771400    0.9244100   -5.8394400 
H     0.3395200    1.5918100   -4.2156800 
H     1.6939000   -1.7476400   -4.9924700 
H     0.1068300   -2.5609200   -4.9276400 
H     0.4746200   -1.4285300   -6.2741200 
H    -1.7699100    0.4862000   -4.0850100 
H    -1.5324600   -0.1705400   -5.7325400 
H    -1.8995600   -1.2736100   -4.3613500 
