14
Energy =
C    -1.2782210   -0.6764594    0.1207431 
C     1.2782210    0.6764594    0.1207431 
N     1.1488619   -0.7468125   -0.1752307 
N    -1.1488619    0.7468125   -0.1752307 
C    -0.0017720    1.4743825   -0.0984328 
C     0.0017720   -1.4743825   -0.0984328 
O     0.0322154    2.6955521   -0.1967600 
O    -0.0322154   -2.6955521   -0.1967600 
H    -1.9956843    1.2960411   -0.2803641 
H     1.9956843   -1.2960411   -0.2803641 
H    -2.0374300   -1.1161791   -0.5301834 
H     2.0374300    1.1161791   -0.5301834 
H    -1.5968295   -0.8437278    1.1602279 
H     1.5968295    0.8437278    1.1602279 
