21
Energy =
C     1.0190737    0.2651862   -0.1113147 
C     0.0176320   -0.5984548    0.3640938 
C     0.2186155   -1.9757487    0.4064257 
C     1.4293346   -2.5162159   -0.0319166 
C     2.4365498   -1.6745723   -0.5142171 
C     2.2313206   -0.2954513   -0.5499328 
C     0.8178156    1.7428167   -0.1448301 
O    -1.1794263   -0.1109908    0.8815204 
O    -0.2021560    2.3391649    0.1355280 
O     1.9448258    2.4014254   -0.5346167 
C    -2.0910985    0.3159241   -0.0656360 
H     1.6909377    3.3460576   -0.5338719 
O    -1.9414165    0.1388658   -1.2476521 
C    -3.2456217    1.0049331    0.6100578 
H    -0.5820354   -2.6077567    0.7856225 
H     1.5822283   -3.5938563   -0.0001981 
H     3.3808708   -2.0905971   -0.8601168 
H     3.0121234    0.3620089   -0.9220890 
H    -3.5809360    0.4277238    1.4792820 
H    -4.0622584    1.1345815   -0.1054532 
H    -2.8963790    1.9849559    0.9593151 
