108
Energy =
N    -1.1029223    1.0560005   -4.2940112 
C    -0.7758547   -0.1554790   -5.0235741 
C     0.7842562   -0.1730682   -5.0099869 
N     1.1258352    1.0156810   -4.2458299 
C     0.0166703    1.7493813   -3.8754694 
N    -1.1293977   -1.3965952   -4.3578923 
C    -0.0256741   -2.1678681   -4.0436753 
N     1.1006136   -1.4367327   -4.3703011 
C    -2.4822025   -1.9050630   -4.2596615 
N    -3.2392921   -1.3641691   -3.1462380 
C    -4.0129850   -0.1390805   -3.2065225 
C    -4.8036734   -0.1431483   -1.8598395 
N    -4.3608319   -1.3650568   -1.2168380 
C    -3.4973310   -2.1022790   -2.0061018 
N    -4.3752332    1.0915279   -1.2171712 
C    -3.4978199    1.8121360   -1.9926892 
N    -3.2397537    1.0919492   -3.1327952 
C    -4.9398629   -1.8997717   -0.0002723 
N    -4.3598742   -1.3643367    1.2155015 
C    -4.8034193   -0.1430574    1.8593160 
C    -4.0130037   -0.1394701    3.2059915 
N    -3.2376321   -1.3634499    3.1445535 
C    -3.4956791   -2.1013565    2.0042896 
N    -3.2409862    1.0923960    3.1337126 
C    -3.4992740    1.8132944    1.9940630 
N    -4.3755116    1.0922899    1.2175438 
C    -2.4817168   -1.9050161    4.2584160 
N    -1.1288461   -1.3968869    4.3572873 
C    -0.7756300   -0.1561189    5.0240767 
C     0.7844945   -0.1727440    5.0091717 
N     1.1010316   -1.4373732    4.3715001 
C    -0.0250580   -2.1687400    4.0451366 
N     1.1247132    1.0148203    4.2426224 
C     0.0148408    1.7480413    3.8735234 
N    -1.1039945    1.0559249    4.2962070 
C     2.4379846   -1.9918359    4.2836951 
N     3.2190415   -1.4976951    3.1675102 
C     4.0055819   -0.2801044    3.1955472 
C     4.8152182   -0.3391931    1.8620868 
N     4.2939608   -1.5320897    1.2137177 
C     3.4284021   -2.2429524    2.0228946 
N     4.4953378    0.9205565    1.2179687 
C     3.6174142    1.6904684    1.9550095 
N     3.2510867    0.9572155    3.0685404 
O    -0.0438003   -3.3078665    3.5929268 
C    -2.4348526    1.6187810    4.2194485 
O     0.0168658    2.8324471    3.2978752 
C     2.4714241    1.5423816    4.1392519 
O    -3.0635532   -3.2200869    1.7542629 
C    -4.9571032    1.6236648   -0.0001237 
O    -3.0454295    2.9300151    1.7271108 
C     4.8469655   -2.0975205   -0.0002346 
N     4.2937696   -1.5318240   -1.2140454 
C     4.8154989   -0.3394466   -1.8630494 
C     4.0062125   -0.2808748   -3.1966039 
N     3.2201741   -1.4987427   -3.1686274 
C     3.4287234   -2.2431936   -2.0233947 
N     3.2510819    0.9562164   -3.0700161 
C     3.6188911    1.6908438   -1.9577773 
N     4.4960357    0.9208675   -1.2198372 
C     2.4373534   -1.9919273   -4.2839172 
O     2.9585951   -3.3501006   -1.7845735 
C     5.1153131    1.4028827   -0.0006826 
O     3.2509279    2.8295939   -1.6919730 
C     2.4732604    1.5412947   -4.1422478 
O     2.9583118   -3.3499623    1.7844669 
O     3.2484159    2.8286109    1.6879404 
O    -3.0659068   -3.2213940   -1.7565176 
C    -2.4335694    1.6196559   -4.2177798 
O    -3.0427767    2.9280324   -1.7244525 
O    -0.0446670   -3.3066143   -3.5906266 
O     0.0198485    2.8344013   -3.3010138 
H    -1.2106695   -0.1248527    6.0282004 
H     1.2385399   -0.1236873    6.0042045 
H     2.9861013    1.3795226    5.0925058 
H     2.3893643    2.6099139    3.9288584 
H     2.9746580   -1.7731985    5.2124723 
H     2.3293599   -3.0692796    4.1515840 
H    -5.8908807   -0.1449051    1.9815552 
H    -4.6502020   -0.1327678    4.0956971 
H    -2.3296148    2.6911548    4.0497487 
H    -2.9528865    1.4321196    5.1651947 
H    -2.4098218   -2.9832248    4.1079197 
H    -3.0167617   -1.6840647    5.1877914 
H     5.8975839   -0.4282666   -2.0048755 
H     4.6327901   -0.2532841   -4.0942454 
H     2.9883566    1.3763018   -5.0948804 
H     2.3928850    2.6092599   -3.9333844 
H     2.9731026   -1.7733458   -5.2132504 
H     2.3283005   -3.0693731   -4.1520855 
H     4.6320214   -0.2526831    4.0933019 
H     5.8973110   -0.4274651    2.0041373 
H     5.0224224    2.4898021   -0.0006078 
H     6.1695270    1.1102832   -0.0003734 
H     4.6066293   -3.1619162   -0.0004429 
H     5.9326791   -1.9515164   -0.0002843 
H    -4.6501508   -0.1306653   -4.0962375 
H    -5.8910989   -0.1442906   -1.9823355 
H    -6.0304830    1.4114989   -0.0001546 
H    -4.7842876    2.7006131   -0.0003768 
H    -6.0159550   -1.6981966    0.0001000 
H    -4.7540836   -2.9748524   -0.0000869 
H     1.2374664   -0.1261373   -6.0055312 
H    -1.2116023   -0.1227907   -6.0273559 
H    -2.3277639    2.6917607   -4.0468126 
H    -2.9514095    1.4341793   -5.1638734 
H    -2.4102009   -2.9832585   -4.1091921 
H    -3.0165989   -1.6841096   -5.1894112 
